/*--------------------------------*- C++ -*----------------------------------*\
| =========                 |                                                 |
| \\      /  F ield         | OpenFOAM: The Open Source CFD Toolbox           |
|  \\    /   O peration     | Version:  v2206                                 |
|   \\  /    A nd           | Website:  www.openfoam.com                      |
|    \\/     M anipulation  |                                                 |
\*---------------------------------------------------------------------------*/
FoamFile
{
    version     2.0;
    format      ascii;
    class       volScalarField;
    object      omega;
}
// * * * * * * * * * * * * * * * * * * * * * * * * * * * * * * * * * * * * * //

dimensions      [0 0 -1 0 0 0 0];

internalField   uniform 0.375;

boundaryField
{
    inlet1
    {
        type            fixedValue;
        value           uniform 0.375;
    }

    outlet1
    {
        type            zeroGradient;
    }

    wall1
    {
        type            omegaWallFunction;
        value           uniform 1;
    }

    sphere1
    {
        type            omegaWallFunction;
        value           uniform 29.6;
    }

}


// ************************************************************************* //
